# generated using pymatgen
data_Gd2H5
_symmetry_space_group_name_H-M   'P 1'
_cell_length_a   5.11999021
_cell_length_b   5.11999021
_cell_length_c   5.11999021
_cell_angle_alpha   90.00000000
_cell_angle_beta   90.00000000
_cell_angle_gamma   90.00000000
_symmetry_Int_Tables_number   1
_chemical_formula_structural   Gd2H5
_chemical_formula_sum   'Gd4 H10'
_cell_volume   134.21695781
_cell_formula_units_Z   2
loop_
 _symmetry_equiv_pos_site_id
 _symmetry_equiv_pos_as_xyz
  1  'x, y, z'
loop_
 _atom_site_type_symbol
 _atom_site_label
 _atom_site_symmetry_multiplicity
 _atom_site_fract_x
 _atom_site_fract_y
 _atom_site_fract_z
 _atom_site_occupancy
  Gd  Gd0  1  0.00000000  0.00000000  0.00000000  1.0
  Gd  Gd1  1  0.00000000  0.50000000  0.50000000  1.0
  Gd  Gd2  1  0.50000000  0.00000000  0.50000000  1.0
  Gd  Gd3  1  0.50000000  0.50000000  0.00000000  1.0
  H  H4  1  0.25004714  0.75391288  0.75391288  1.0
  H  H5  1  0.25004714  0.75014143  0.25004714  1.0
  H  H6  1  0.25004714  0.25004714  0.25004714  1.0
  H  H7  1  0.25004714  0.25004714  0.75014143  1.0
  H  H8  1  0.75014143  0.25004714  0.75014143  1.0
  H  H9  1  0.75014143  0.25004714  0.25004714  1.0
  H  H10  1  0.75014143  0.75014143  0.25004714  1.0
  H  H11  1  0.75014143  0.75014143  0.75014143  1.0
  H  H12  1  0.50009429  0.50009429  0.50009429  1.0
  H  H13  1  0.50009429  0.00000000  0.00000000  1.0
