# generated using pymatgen
data_Gd2H3
_symmetry_space_group_name_H-M   'P 1'
_cell_length_a   7.46118384
_cell_length_b   3.73059192
_cell_length_c   5.95633265
_cell_angle_alpha   90.00000000
_cell_angle_beta   90.00000000
_cell_angle_gamma   120.00000000
_symmetry_Int_Tables_number   1
_chemical_formula_structural   Gd2H3
_chemical_formula_sum   'Gd4 H6'
_cell_volume   143.58036797
_cell_formula_units_Z   2
loop_
 _symmetry_equiv_pos_site_id
 _symmetry_equiv_pos_as_xyz
  1  'x, y, z'
loop_
 _atom_site_type_symbol
 _atom_site_label
 _atom_site_symmetry_multiplicity
 _atom_site_fract_x
 _atom_site_fract_y
 _atom_site_fract_z
 _atom_site_occupancy
  Gd  Gd0  1  0.33333333  0.33333333  0.75000000  1.0
  Gd  Gd1  1  0.83333333  0.33333333  0.75000000  1.0
  Gd  Gd2  1  0.16666667  0.66666667  0.25000000  1.0
  Gd  Gd3  1  0.66666667  0.66666667  0.25000000  1.0
  H  H4  1  0.33842226  0.31216467  0.96880456  1.0
  H  H5  1  0.78078045  0.26647424  0.96204555  1.0
  H  H6  1  0.95232112  0.91277282  0.50987214  1.0
  H  H7  1  0.51055075  0.97188281  0.49947366  1.0
  H  H8  1  0.24377561  0.98338530  0.37053251  1.0
  H  H9  1  0.77180293  0.04952459  0.29860969  1.0
